#======================================================================

# CRYSTAL DATA

#----------------------------------------------------------------------

data_VESTA_phase_1


_chemical_name_common                  ''
_cell_length_a                         3.83882(7)
_cell_length_b                         3.83882(7)
_cell_length_c                         28.5308(7)
_cell_angle_alpha                      90
_cell_angle_beta                       90
_cell_angle_gamma                      90
_space_group_name_H-M_alt              'I 4/m m m'
_space_group_IT_number                 139

loop_
_space_group_symop_operation_xyz
   'x, y, z'
   '-x, -y, -z'
   '-x, -y, z'
   'x, y, -z'
   '-y, x, z'
   'y, -x, -z'
   'y, -x, z'
   '-y, x, -z'
   '-x, y, -z'
   'x, -y, z'
   'x, -y, -z'
   '-x, y, z'
   'y, x, -z'
   '-y, -x, z'
   '-y, -x, -z'
   'y, x, z'
   'x+1/2, y+1/2, z+1/2'
   '-x+1/2, -y+1/2, -z+1/2'
   '-x+1/2, -y+1/2, z+1/2'
   'x+1/2, y+1/2, -z+1/2'
   '-y+1/2, x+1/2, z+1/2'
   'y+1/2, -x+1/2, -z+1/2'
   'y+1/2, -x+1/2, z+1/2'
   '-y+1/2, x+1/2, -z+1/2'
   '-x+1/2, y+1/2, -z+1/2'
   'x+1/2, -y+1/2, z+1/2'
   'x+1/2, -y+1/2, -z+1/2'
   '-x+1/2, y+1/2, z+1/2'
   'y+1/2, x+1/2, -z+1/2'
   '-y+1/2, -x+1/2, z+1/2'
   '-y+1/2, -x+1/2, -z+1/2'
   'y+1/2, x+1/2, z+1/2'

loop_
   _atom_site_label
   _atom_site_occupancy
   _atom_site_fract_x
   _atom_site_fract_y
   _atom_site_fract_z
   _atom_site_adp_type
   _atom_site_B_iso_or_equiv
   _atom_site_type_symbol
   Na         1.0     0.000000      0.000000      0.2906(9)    Biso  1.000000 Na
   La         1.0     0.000000      0.000000      0.42463(10)  Biso  0.883700 La
   Ti1        1.0     0.000000      0.000000      0.000000     Biso  1.000000 Ti
   Ti2        1.0     0.000000      0.000000      0.1483(4)    Biso  1.000000 Ti
   O1         1.0     0.000000      0.500000      0.000000     Biso  1.000000 O
   O2         1.0     0.000000      0.000000      0.0683(10)   Biso  1.000000 O
   O3         1.0     0.000000      0.500000      0.1337(10)   Biso  1.000000 O
   O4         1.0     0.000000      0.000000      0.2070(10)   Biso  1.000000 O
