##CIF_1.1

data_sm_global
#Used dictionaries
loop_
_audit_conform_dict_name
_audit_conform_dict_version
_audit_conform_dict_location
cif_core.dic 	2.4.2 	.
cif_pd.dic 		1.0.1 	.
cif_sm.dic 		0.1 	'redaktion.landolt-boernstein(at)springer.com'

#About this content and reference
_sm_credits_copyright
;PAULING FILE Multinaries Edition - 2012. SpringerMaterials Release 2014.
http://www.paulingfile.com
Unique LPF ID Number SD0306202
Project Coordinator: Shuichi Iwata
Section-Editors: Karin Cenzual (Crystal Structures), Hiroaki Okamoto (Phase 
Diagrams), Fritz Hulliger (Physical Properties)
(c) Springer & Material Phases Data System (MPDS), Switzerland & National 
Institute for Materials Science (NIMS), Japan 2014.
(Data generated pre-2002: (c) Springer & MPDS & NIMS; 
post-2001: (c) Springer & MPDS)
All Rights Reserved. Version 2014.06.
;

_audit_creation_method
;This data have been compiled from the crystallographic datasheet for 
"LaTiO3 Crystal Structure" 
taken from SpringerMaterials (sm_isp_sd_0306202).
;

_publ_section_references
;Bazuev G.V., Shveikin G.P.: <i>Continuous Mutual Solubility in the LaTiO<sub>3</sub>-YTiO<sub>3</sub> System</i>. (Russian) Journal of Inorganic Chemistry (translated from Zhurnal Neorganicheskoi Khimii) <b>27</b> (1982) 1174-1176.
;

#Phase classification
_sm_phase_labels				'LaTiO3'
_chemical_name_mineral			''
_sm_chemical_compound_class		'oxide'
_sm_phase_prototype				'GdFeO3 '
_sm_pearson_symbol				'oP20'
_symmetry_Int_Tables_number		62
_sm_sample_details
;sample prepared from La<sub>2</sub>O<sub>3</sub>, TiO<sub>2</sub> rutile, 
powder (determination of cell parameters)
;
_sm_measurement_details
;automatic diffractometer (determination of cell parameters), 
X-rays, Cu K&#x03b1; (determination of cell parameters)
;
_sm_interpretation_details
;cell parameters determined and structure type assigned
;

data_sm_isp_SD0306202-standardized_unitcell
#Cell Parameters
_cell_length_a					5.595
_cell_length_b					7.912
_cell_length_c					5.595
_cell_angle_alpha				90
_cell_angle_beta				90
_cell_angle_gamma				90
_sm_length_ratio_ab				0.707
_sm_length_ratio_bc				1.414
_sm_length_ratio_ca				1.000
_cell_volume 					247.7
_symmetry_space_group_name_H-M	'Pnma'
_symmetry_Int_Tables_number		62
_cell_formula_units_Z			4
_sm_cell_transformation
;new axes b,c,a
;

#Atom Coordinates
loop_
_atom_site_label
_atom_site_type_symbol
_atom_site_Wyckoff_symbol
_sm_site_symmetry
_atom_site_fract_x
_atom_site_fract_y
_atom_site_fract_z
_atom_site_occupancy
_sm_coordination_number
_sm_atomic_environment_type
O1 'O' .8d .1 0.1984 0.0506 0.3043 1 ? '?'
La1 'La' .4c ..m. 0.43716 0.25 0.01556 1 ? '?'
O2 'O' .4c ..m. 0.5328 0.25 0.6005 1 ? '?'
Ti1 'Ti' .4a .-1 0 0 0 1 ? '?'

_sm_atom_site_transformation
;new axes b,c,a
Atom coordinates assigned by editor.
;

data_sm_isp_SD0306202-published_cell
#Cell Parameters
_cell_length_a					5.595(5)
_cell_length_b					5.595(5)
_cell_length_c					7.912(5)
_cell_angle_alpha				90
_cell_angle_beta				90
_cell_angle_gamma				90
_sm_length_ratio_ab				1.000
_sm_length_ratio_bc				0.707
_sm_length_ratio_ca				1.414
_cell_volume 					247.68
_symmetry_space_group_name_H-M	'Pbnm'
_symmetry_Int_Tables_number		62
_cell_formula_units_Z			4

#Atom Coordinates
loop_
_atom_site_label
_atom_site_type_symbol
_atom_site_Wyckoff_symbol
_sm_site_symmetry
_atom_site_fract_x
_atom_site_fract_y
_atom_site_fract_z
_atom_site_occupancy
_sm_coordination_number
_sm_atomic_environment_type
? ? ? ? ? ? ? ? ? ?

data_sm_isp_SD0306202-niggli_reduced_cell
#Cell Parameters
_cell_length_a					5.595
_cell_length_b					5.595
_cell_length_c					7.912
_cell_angle_alpha				90
_cell_angle_beta				90
_cell_angle_gamma				90
_sm_length_ratio_ab				1.000
_sm_length_ratio_bc				0.707
_sm_length_ratio_ca				1.414
_cell_volume 					247.68
_symmetry_space_group_name_H-M	''
_symmetry_Int_Tables_number		?
_cell_formula_units_Z			4

#Atom Coordinates
loop_
_atom_site_label
_atom_site_type_symbol
_atom_site_Wyckoff_symbol
_sm_site_symmetry
_atom_site_fract_x
_atom_site_fract_y
_atom_site_fract_z
_atom_site_occupancy
_sm_coordination_number
_sm_atomic_environment_type
? ? ? ? ? ? ? ? ? ?

