##CIF_1.1

data_sm_global
#Used dictionaries
loop_
_audit_conform_dict_name
_audit_conform_dict_version
_audit_conform_dict_location
cif_core.dic 	2.4.2 	.
cif_pd.dic 		1.0.1 	.
cif_sm.dic 		0.1 	'redaktion.landolt-boernstein(at)springer.com'

#About this content and reference
_sm_credits_copyright
;PAULING FILE Multinaries Edition - 2012. SpringerMaterials Release 2014.
http://www.paulingfile.com
Unique LPF ID Number SD0548134
Project Coordinator: Shuichi Iwata
Section-Editors: Karin Cenzual (Crystal Structures), Hiroaki Okamoto (Phase 
Diagrams), Fritz Hulliger (Physical Properties)
(c) Springer & Material Phases Data System (MPDS), Switzerland & National 
Institute for Materials Science (NIMS), Japan 2014.
(Data generated pre-2002: (c) Springer & MPDS & NIMS; 
post-2001: (c) Springer & MPDS)
All Rights Reserved. Version 2014.06.
;

_audit_creation_method
;This data have been compiled from the crystallographic datasheet for 
"BaBi2Nb2O9 (BaNb2Bi2O9 rt) Crystal Structure" 
taken from SpringerMaterials (sm_isp_sd_0548134).
;

_publ_section_references
;Wachsmuth B., Zschech E., Thomas N.W., Brodie S.G., Gurman S.J., Baker S., Bayliss S.C.: <i>Structure Model of Aurivillius Compounds. An EXAFS Study</i>. Physica Status Solidi A: Applied Research <b>135</b> (1993) 59-71.
;

#Phase classification
_sm_phase_labels				'BaNb2Bi2O9 rt'
_chemical_name_mineral			''
_sm_chemical_compound_class		'oxide'
_sm_phase_prototype				'CaNb2 Bi2 O9 '
_sm_pearson_symbol				'oS56'
_symmetry_Int_Tables_number		36
_sm_sample_details
;powder (determination of cell parameters)
;
_sm_measurement_details
;diffractometer (determination of cell parameters), 
X-rays, Co K&#x03b1; (determination of cell parameters)
;
_sm_interpretation_details
;cell parameters determined and structure type assigned
;

data_sm_isp_SD0548134-standardized_unitcell
#Cell Parameters
_cell_length_a					25.575
_cell_length_b					5.563
_cell_length_c					5.563
_cell_angle_alpha				90
_cell_angle_beta				90
_cell_angle_gamma				90
_sm_length_ratio_ab				4.597
_sm_length_ratio_bc				1.000
_sm_length_ratio_ca				0.218
_cell_volume 					791.5
_symmetry_space_group_name_H-M	'Cmc21'
_symmetry_Int_Tables_number		36
_cell_formula_units_Z			4
_sm_cell_transformation
;new axes c,-b,a
;

#Atom Coordinates
loop_
_atom_site_label
_atom_site_type_symbol
_atom_site_Wyckoff_symbol
_sm_site_symmetry
_atom_site_fract_x
_atom_site_fract_y
_atom_site_fract_z
_atom_site_occupancy
_sm_coordination_number
_sm_atomic_environment_type
O1 'O' .8b .1 0.0682 0.0317 0.3009 1 ? '?'
Nb1 'Nb' .8b .1 0.0883 0.2499 0.0366 1 ? '?'
O2 'O' .8b .1 0.16 0.1951 0.0275 1 ? '?'
O3 'O' .8b .1 0.2504 0.0124 0.3125 1 ? '?'
M1 '0.670Bi + 0.330Ba' .8b .1 0.3007 0.2699 0.0754 1 ? '?'
O4 'O' .8b .1 0.4146 0.0493 0.221 1 ? '?'
M2 '0.670Bi + 0.330Ba' .4a .m.. 0 0.26 0.5813 1 ? '?'
O5 'O' .4a .m.. 0 0.3214 0 1 ? '?'

_sm_atom_site_transformation
;new axes c,-b,a
Atom coordinates assigned by editor.
;

data_sm_isp_SD0548134-published_cell
#Cell Parameters
_cell_length_a					5.563(17)
_cell_length_b					5.563(17)
_cell_length_c					25.575(128)
_cell_angle_alpha				90
_cell_angle_beta				90
_cell_angle_gamma				90
_sm_length_ratio_ab				1.000
_sm_length_ratio_bc				0.218
_sm_length_ratio_ca				4.597
_cell_volume 					791.47
_symmetry_space_group_name_H-M	'A21am'
_symmetry_Int_Tables_number		36
_cell_formula_units_Z			4

#Atom Coordinates
loop_
_atom_site_label
_atom_site_type_symbol
_atom_site_Wyckoff_symbol
_sm_site_symmetry
_atom_site_fract_x
_atom_site_fract_y
_atom_site_fract_z
_atom_site_occupancy
_sm_coordination_number
_sm_atomic_environment_type
? ? ? ? ? ? ? ? ? ?

data_sm_isp_SD0548134-niggli_reduced_cell
#Cell Parameters
_cell_length_a					5.563
_cell_length_b					5.563
_cell_length_c					13.0865
_cell_angle_alpha				90
_cell_angle_beta				102.272
_cell_angle_gamma				90
_sm_length_ratio_ab				1.000
_sm_length_ratio_bc				0.425
_sm_length_ratio_ca				2.352
_cell_volume 					395.73
_symmetry_space_group_name_H-M	''
_symmetry_Int_Tables_number		?
_cell_formula_units_Z			4

#Atom Coordinates
loop_
_atom_site_label
_atom_site_type_symbol
_atom_site_Wyckoff_symbol
_sm_site_symmetry
_atom_site_fract_x
_atom_site_fract_y
_atom_site_fract_z
_atom_site_occupancy
_sm_coordination_number
_sm_atomic_environment_type
? ? ? ? ? ? ? ? ? ?

