##CIF_1.1

data_sm_global
#Used dictionaries
loop_
_audit_conform_dict_name
_audit_conform_dict_version
_audit_conform_dict_location
cif_core.dic 	2.4.2 	.
cif_pd.dic 		1.0.1 	.
cif_sm.dic 		0.1 	'redaktion.landolt-boernstein(at)springer.com'

#About this content and reference
_sm_credits_copyright
;PAULING FILE Multinaries Edition - 2012. SpringerMaterials Release 2014.
http://www.paulingfile.com
Unique LPF ID Number SD0305963
Project Coordinator: Shuichi Iwata
Section-Editors: Karin Cenzual (Crystal Structures), Hiroaki Okamoto (Phase 
Diagrams), Fritz Hulliger (Physical Properties)
(c) Springer & Material Phases Data System (MPDS), Switzerland & National 
Institute for Materials Science (NIMS), Japan 2014.
(Data generated pre-2002: (c) Springer & MPDS & NIMS; 
post-2001: (c) Springer & MPDS)
All Rights Reserved. Version 2014.06.
;

_audit_creation_method
;This data have been compiled from the crystallographic datasheet for 
"Sr2Ta2O7 Crystal Structure" 
taken from SpringerMaterials (sm_isp_sd_0305963).
;

_publ_section_references
;Spitsyn V.I., Ippolitova E.A., Kovba L.M., Lykova L.N., Leshchenko P.P.: <i>New Data on the Composition and Polymorphism of Alkaline Earth Metal Niobates and Tantalates</i>. (Russian) Journal of Inorganic Chemistry (translated from Zhurnal Neorganicheskoi Khimii) <b>27</b> (1982) 464-467.
;

#Phase classification
_sm_phase_labels				'Sr2Ta2O7 rt'
_chemical_name_mineral			''
_sm_chemical_compound_class		'oxide'
_sm_phase_prototype				'Sr2 Ta2 O7 '
_sm_pearson_symbol				'oS44'
_symmetry_Int_Tables_number		63
_sm_sample_details
;powder (determination of cell parameters)
;
_sm_measurement_details
;Guinier-de Wolff film (determination of cell parameters), 
X-rays (determination of cell parameters)
;
_sm_interpretation_details
;cell parameters determined and structure type assigned
;

data_sm_isp_SD0305963-standardized_unitcell
#Cell Parameters
_cell_length_a					3.948
_cell_length_b					27.18
_cell_length_c					5.694
_cell_angle_alpha				90
_cell_angle_beta				90
_cell_angle_gamma				90
_sm_length_ratio_ab				0.145
_sm_length_ratio_bc				4.773
_sm_length_ratio_ca				1.442
_cell_volume 					611
_symmetry_space_group_name_H-M	'Cmcm'
_symmetry_Int_Tables_number		63
_cell_formula_units_Z			4
_sm_cell_transformation
;No transformation from published to standardized cell parameters necessary.
;

#Atom Coordinates
loop_
_atom_site_label
_atom_site_type_symbol
_atom_site_Wyckoff_symbol
_sm_site_symmetry
_atom_site_fract_x
_atom_site_fract_y
_atom_site_fract_z
_atom_site_occupancy
_sm_coordination_number
_sm_atomic_environment_type
O1 'O' .8f .m.. 0 0.0991 0.008 1 ? '?'
O2 'O' .8f .m.. 0 0.207 0.01 1 ? '?'
Ta1 'Ta' .4c .m2m 0 0.1601 0.25 1 ? '?'
Sr1 'Sr' .4c .m2m 0 0.2884 0.25 1 ? '?'
O3 'O' .4c .m2m 0 0.4524 0.25 1 ? '?'
Sr2 'Sr' .4c .m2m 0 0.5532 0.25 1 ? '?'
O4 'O' .4c .m2m 0 0.6525 0.25 1 ? '?'
Ta2 'Ta' .4c .m2m 0 0.9447 0.25 1 ? '?'
O5 'O' .4a .2/m.. 0 0 0 1 ? '?'

_sm_atom_site_transformation
;No transformation from published to standardized cell parameters necessary.
Atom coordinates assigned by editor.
;

data_sm_isp_SD0305963-published_cell
#Cell Parameters
_cell_length_a					3.948
_cell_length_b					27.18
_cell_length_c					5.694
_cell_angle_alpha				90
_cell_angle_beta				90
_cell_angle_gamma				90
_sm_length_ratio_ab				0.145
_sm_length_ratio_bc				4.773
_sm_length_ratio_ca				1.442
_cell_volume 					611
_symmetry_space_group_name_H-M	'Cmcm'
_symmetry_Int_Tables_number		63
_cell_formula_units_Z			4

#Atom Coordinates
loop_
_atom_site_label
_atom_site_type_symbol
_atom_site_Wyckoff_symbol
_sm_site_symmetry
_atom_site_fract_x
_atom_site_fract_y
_atom_site_fract_z
_atom_site_occupancy
_sm_coordination_number
_sm_atomic_environment_type
? ? ? ? ? ? ? ? ? ?

data_sm_isp_SD0305963-niggli_reduced_cell
#Cell Parameters
_cell_length_a					3.948
_cell_length_b					5.694
_cell_length_c					13.7326
_cell_angle_alpha				90
_cell_angle_beta				98.265
_cell_angle_gamma				90
_sm_length_ratio_ab				0.693
_sm_length_ratio_bc				0.415
_sm_length_ratio_ca				3.478
_cell_volume 					305.5
_symmetry_space_group_name_H-M	''
_symmetry_Int_Tables_number		?
_cell_formula_units_Z			4

#Atom Coordinates
loop_
_atom_site_label
_atom_site_type_symbol
_atom_site_Wyckoff_symbol
_sm_site_symmetry
_atom_site_fract_x
_atom_site_fract_y
_atom_site_fract_z
_atom_site_occupancy
_sm_coordination_number
_sm_atomic_environment_type
? ? ? ? ? ? ? ? ? ?

