##CIF_1.1

data_sm_global
#Used dictionaries
loop_
_audit_conform_dict_name
_audit_conform_dict_version
_audit_conform_dict_location
cif_core.dic 	2.4.2 	.
cif_pd.dic 		1.0.1 	.
cif_sm.dic 		0.1 	'redaktion.landolt-boernstein(at)springer.com'

#About this content and reference
_sm_credits_copyright
;PAULING FILE Multinaries Edition - 2012. SpringerMaterials Release 2014.
http://www.paulingfile.com
Unique LPF ID Number SD0551678
Project Coordinator: Shuichi Iwata
Section-Editors: Karin Cenzual (Crystal Structures), Hiroaki Okamoto (Phase 
Diagrams), Fritz Hulliger (Physical Properties)
(c) Springer & Material Phases Data System (MPDS), Switzerland & National 
Institute for Materials Science (NIMS), Japan 2014.
(Data generated pre-2002: (c) Springer & MPDS & NIMS; 
post-2001: (c) Springer & MPDS)
All Rights Reserved. Version 2014.06.
;

_audit_creation_method
;This data have been compiled from the crystallographic datasheet for 
"PbBi4Ti4O15 (Ti4PbBi4O15 rt) Crystal Structure" 
taken from SpringerMaterials (sm_isp_sd_0551678).
;

_publ_section_references
;Reznichenko L.A., Razumovskaya O.N., Shilkina L.A., Dergunova N.V.: <i>Correlating the Curie temperature of mixed bismuth oxides to the crystalchemical parameters of constituent ions</i>. Inorganic Materials (translated from Neorganicheskie Materialy) <b>32</b> (1996) 423-429.
;

#Phase classification
_sm_phase_labels				'Ti4PbBi4O15 rt'
_chemical_name_mineral			''
_sm_chemical_compound_class		'oxide'
_sm_phase_prototype				'(Ti0.75 Fe0.25 )4 Bi5 O15 '
_sm_pearson_symbol				'oS96'
_symmetry_Int_Tables_number		36
_sm_sample_details
;powder (determination of cell parameters)
;
_sm_measurement_details
;film (determination of cell parameters), 
X-rays (determination of cell parameters)
;
_sm_interpretation_details
;cell parameters determined and structure type assigned; magnetic structure determined
;

data_sm_isp_SD0551678-standardized_unitcell
#Cell Parameters
_cell_length_a					41.36
_cell_length_b					5.437
_cell_length_c					5.55
_cell_angle_alpha				90
_cell_angle_beta				90
_cell_angle_gamma				90
_sm_length_ratio_ab				7.607
_sm_length_ratio_bc				0.980
_sm_length_ratio_ca				0.134
_cell_volume 					1248.1
_symmetry_space_group_name_H-M	'Cmc21'
_symmetry_Int_Tables_number		36
_cell_formula_units_Z			4
_sm_cell_transformation
;new axes c,a,b
;

#Atom Coordinates
loop_
_atom_site_label
_atom_site_type_symbol
_atom_site_Wyckoff_symbol
_sm_site_symmetry
_atom_site_fract_x
_atom_site_fract_y
_atom_site_fract_z
_atom_site_occupancy
_sm_coordination_number
_sm_atomic_environment_type
O1 'O' .8b .1 0.03988 0.469 0.2891 1 ? '?'
Ti1 'Ti' .8b .1 0.04871 0.2486 0.0359 1 ? '?'
O2 'O' .8b .1 0.09477 0.3118 0.0039 1 ? '?'
O3 'O' .8b .1 0.13864 0.0144 0.2964 1 ? '?'
Ti2 'Ti' .8b .1 0.15292 0.2418 0.0394 1 ? '?'
O4 'O' .8b .1 0.19455 0.1974 0.0392 1 ? '?'
O5 'O' .8b .1 0.2495 0.0075 0.3228 1 ? '?'
M1 '0.800Bi + 0.200Pb' .8b .1 0.28075 0.2696 0.0988 1 ? '?'
O6 'O' .8b .1 0.35302 0.0311 0.2467 1 ? '?'
M2 '0.800Bi + 0.200Pb' .8b .1 0.39532 0.2452 0.084 1 ? '?'
O7 'O' .8b .1 0.4489 0.4554 0.2222 1 ? '?'
O8 'O' .4a .m.. 0 0.1748 0 1 ? '?'
M3 '0.800Bi + 0.200Pb' .4a .m.. 0 0.2559 0.581 1 ? '?'

_sm_atom_site_transformation
;new axes c,a,b
Atom coordinates assigned by editor.
;

data_sm_isp_SD0551678-published_cell
#Cell Parameters
_cell_length_a					5.437
_cell_length_b					5.55
_cell_length_c					41.36
_cell_angle_alpha				90
_cell_angle_beta				90
_cell_angle_gamma				90
_sm_length_ratio_ab				0.980
_sm_length_ratio_bc				0.134
_sm_length_ratio_ca				7.607
_cell_volume 					1248.05
_symmetry_space_group_name_H-M	'Bb21m'
_symmetry_Int_Tables_number		36
_cell_formula_units_Z			4

#Atom Coordinates
loop_
_atom_site_label
_atom_site_type_symbol
_atom_site_Wyckoff_symbol
_sm_site_symmetry
_atom_site_fract_x
_atom_site_fract_y
_atom_site_fract_z
_atom_site_occupancy
_sm_coordination_number
_sm_atomic_environment_type
? ? ? ? ? ? ? ? ? ?

data_sm_isp_SD0551678-niggli_reduced_cell
#Cell Parameters
_cell_length_a					5.437
_cell_length_b					5.55
_cell_length_c					20.8579
_cell_angle_alpha				90
_cell_angle_beta				97.489
_cell_angle_gamma				90
_sm_length_ratio_ab				0.980
_sm_length_ratio_bc				0.266
_sm_length_ratio_ca				3.836
_cell_volume 					624.03
_symmetry_space_group_name_H-M	''
_symmetry_Int_Tables_number		?
_cell_formula_units_Z			4

#Atom Coordinates
loop_
_atom_site_label
_atom_site_type_symbol
_atom_site_Wyckoff_symbol
_sm_site_symmetry
_atom_site_fract_x
_atom_site_fract_y
_atom_site_fract_z
_atom_site_occupancy
_sm_coordination_number
_sm_atomic_environment_type
? ? ? ? ? ? ? ? ? ?

