##CIF_1.1

data_sm_global
#Used dictionaries
loop_
_audit_conform_dict_name
_audit_conform_dict_version
_audit_conform_dict_location
cif_core.dic 	2.4.2 	.
cif_pd.dic 		1.0.1 	.
cif_sm.dic 		0.1 	'redaktion.landolt-boernstein(at)springer.com'

#About this content and reference
_sm_credits_copyright
;PAULING FILE Multinaries Edition - 2012. SpringerMaterials Release 2014.
http://www.paulingfile.com
Unique LPF ID Number SD0314261
Project Coordinator: Shuichi Iwata
Section-Editors: Karin Cenzual (Crystal Structures), Hiroaki Okamoto (Phase 
Diagrams), Fritz Hulliger (Physical Properties)
(c) Springer & Material Phases Data System (MPDS), Switzerland & National 
Institute for Materials Science (NIMS), Japan 2014.
(Data generated pre-2002: (c) Springer & MPDS & NIMS; 
post-2001: (c) Springer & MPDS)
All Rights Reserved. Version 2014.06.
;

_audit_creation_method
;This data have been compiled from the crystallographic datasheet for 
"Nb2O5 Crystal Structure" 
taken from SpringerMaterials (sm_isp_sd_0314261).
;

_publ_section_references
;Bouillaud Y.: <i>Contribution a l'etude du systeme mNb<sub>2</sub>O<sub>5</sub>-nNa<sub>2</sub>O. Domaine m/n&#x003e; 1</i>. Bulletin de la Societe Chimique de France (1968) 112-117 (in French).
;

#Phase classification
_sm_phase_labels				'Nb2O5 ht mon1'
_chemical_name_mineral			''
_sm_chemical_compound_class		'oxide'
_sm_phase_prototype				'Nb2 O5 '
_sm_pearson_symbol				'mP99'
_symmetry_Int_Tables_number		10
_sm_sample_details
;powder (determination of cell parameters)
;
_sm_measurement_details
;film (determination of cell parameters), 
X-rays (determination of cell parameters)
;
_sm_interpretation_details
;cell parameters determined and structure type assigned
;

data_sm_isp_SD0314261-standardized_unitcell
#Cell Parameters
_cell_length_a					19.33
_cell_length_b					3.823
_cell_length_c					20.3225
_cell_angle_alpha				90
_cell_angle_beta				115.828
_cell_angle_gamma				90
_sm_length_ratio_ab				5.056
_sm_length_ratio_bc				0.188
_sm_length_ratio_ca				1.051
_cell_volume 					1351.8
_symmetry_space_group_name_H-M	'P12/m1'
_symmetry_Int_Tables_number		10
_cell_formula_units_Z			14
_sm_cell_transformation
;new axes -c,b,a+c
;

#Atom Coordinates
loop_
_atom_site_label
_atom_site_type_symbol
_atom_site_Wyckoff_symbol
_sm_site_symmetry
_atom_site_fract_x
_atom_site_fract_y
_atom_site_fract_z
_atom_site_occupancy
_sm_coordination_number
_sm_atomic_environment_type
O1 'O' .2n .m 0.0122 0.5 0.2938 1 ? '?'
O2 'O' .2n .m 0.0229 0.5 0.4392 1 ? '?'
Nb1 'Nb' .2n .m 0.10834 0.5 0.40647 1 ? '?'
O3 'O' .2n .m 0.174 0.5 0.2236 1 ? '?'
O4 'O' .2n .m 0.1791 0.5 0.5029 1 ? '?'
O5 'O' .2n .m 0.1795 0.5 0.3673 1 ? '?'
O6 'O' .2n .m 0.1809 0.5 0.6526 1 ? '?'
Nb2 'Nb' .2n .m 0.26458 0.5 0.60105 1 ? '?'
Nb3 'Nb' .2n .m 0.26489 0.5 0.34079 1 ? '?'
O7 'O' .2n .m 0.3359 0.5 0.1535 1 ? '?'
O8 'O' .2n .m 0.3383 0.5 0.4332 1 ? '?'
O9 'O' .2n .m 0.3384 0.5 0.572 1 ? '?'
O10 'O' .2n .m 0.341 0.5 0.2987 1 ? '?'
Nb4 'Nb' .2n .m 0.41915 0.5 0.27056 1 ? '?'
Nb5 'Nb' .2n .m 0.42467 0.5 0.53539 1 ? '?'
O11 'O' .2n .m 0.4971 0.5 0.0855 1 ? '?'
O12 'O' .2n .m 0.4999 0.5 0.3613 1 ? '?'
O13 'O' .2n .m 0.5006 0.5 0.2263 1 ? '?'
Nb6 'Nb' .2n .m 0.57916 0.5 0.2033 1 ? '?'
O14 'O' .2n .m 0.6562 0.5 0.1449 1 ? '?'
O15 'O' .2n .m 0.6599 0.5 0.2917 1 ? '?'
O16 'O' .2n .m 0.8341 0.5 0.0725 1 ? '?'
Nb7 'Nb' .2m .m 0.00489 0 0.73623 1 ? '?'
O17 'O' .2m .m 0.0756 0 0.2361 1 ? '?'
O18 'O' .2m .m 0.0819 0 0.1029 1 ? '?'
O19 'O' .2m .m 0.0832 0 0.382 1 ? '?'
O20 'O' .2m .m 0.084 0 0.8257 1 ? '?'
O21 'O' .2m .m 0.0864 0 0.6931 1 ? '?'
O22 'O' .2m .m 0.0891 0 0.5588 1 ? '?'
Nb8 'Nb' .2m .m 0.15172 0 0.19716 1 ? '?'
Nb9 'Nb' .2m .m 0.16077 0 0.6643 1 ? '?'
O23 'O' .2m .m 0.239 0 0.0344 1 ? '?'
O24 'O' .2m .m 0.2395 0 0.1701 1 ? '?'
O25 'O' .2m .m 0.2447 0 0.3133 1 ? '?'
O26 'O' .2m .m 0.2483 0 0.6142 1 ? '?'
Nb10 'Nb' .2m .m 0.30724 0 0.12943 1 ? '?'
O27 'O' .2m .m 0.3939 0 0.0898 1 ? '?'
O28 'O' .2m .m 0.4054 0 0.2411 1 ? '?'
O29 'O' .2m .m 0.416 0 0.5362 1 ? '?'
Nb11 'Nb' .2m .m 0.46924 0 0.0627 1 ? '?'
O30 'O' .2m .m 0.5746 0 0.1707 1 ? '?'
O31 'O' .2m .m 0.5771 0 0.0389 1 ? '?'
Nb12 'Nb' .2m .m 0.68466 0 0.13913 1 ? '?'
O32 'O' .2m .m 0.7465 0 0.0968 1 ? '?'
O33 'O' .2m .m 0.752 0 0.2381 1 ? '?'
Nb13 'Nb' .2m .m 0.84416 0 0.06675 1 ? '?'
O34 'O' .2m .m 0.9209 0 0.0376 1 ? '?'
Nb14 'Nb' .2k .2 0 0.2285 0.5 0.500 ? '?'
O35 'O' .1h .2/m 0.5 0.5 0.5 1 ? '?'
O36 'O' .1b .2/m 0 0.5 0 1 ? '?'
Nb15 'Nb' .1a .2/m 0 0 0 1 ? '?'

_sm_atom_site_transformation
;new axes -c,b,a+c
Atom coordinates assigned by editor.
;

data_sm_isp_SD0314261-published_cell
#Cell Parameters
_cell_length_a					21.08
_cell_length_b					3.823
_cell_length_c					19.33
_cell_angle_alpha				90
_cell_angle_beta				119.8
_cell_angle_gamma				90
_sm_length_ratio_ab				5.514
_sm_length_ratio_bc				0.198
_sm_length_ratio_ca				0.917
_cell_volume 					1351.79
_symmetry_space_group_name_H-M	'P12/m1'
_symmetry_Int_Tables_number		10
_cell_formula_units_Z			14

#Atom Coordinates
loop_
_atom_site_label
_atom_site_type_symbol
_atom_site_Wyckoff_symbol
_sm_site_symmetry
_atom_site_fract_x
_atom_site_fract_y
_atom_site_fract_z
_atom_site_occupancy
_sm_coordination_number
_sm_atomic_environment_type
? ? ? ? ? ? ? ? ? ?

data_sm_isp_SD0314261-niggli_reduced_cell
#Cell Parameters
_cell_length_a					3.823
_cell_length_b					19.33
_cell_length_c					20.3225
_cell_angle_alpha				115.828
_cell_angle_beta				90
_cell_angle_gamma				90
_sm_length_ratio_ab				0.198
_sm_length_ratio_bc				0.951
_sm_length_ratio_ca				5.316
_cell_volume 					1351.78
_symmetry_space_group_name_H-M	''
_symmetry_Int_Tables_number		?
_cell_formula_units_Z			14

#Atom Coordinates
loop_
_atom_site_label
_atom_site_type_symbol
_atom_site_Wyckoff_symbol
_sm_site_symmetry
_atom_site_fract_x
_atom_site_fract_y
_atom_site_fract_z
_atom_site_occupancy
_sm_coordination_number
_sm_atomic_environment_type
? ? ? ? ? ? ? ? ? ?

