##CIF_1.1

data_sm_global
#Used dictionaries
loop_
_audit_conform_dict_name
_audit_conform_dict_version
_audit_conform_dict_location
cif_core.dic 	2.4.2 	.
cif_pd.dic 		1.0.1 	.
cif_sm.dic 		0.1 	'redaktion.landolt-boernstein(at)springer.com'

#About this content and reference
_sm_credits_copyright
;PAULING FILE Multinaries Edition - 2012. SpringerMaterials Release 2014.
http://www.paulingfile.com
Unique LPF ID Number SD1530645
Project Coordinator: Shuichi Iwata
Section-Editors: Karin Cenzual (Crystal Structures), Hiroaki Okamoto (Phase 
Diagrams), Fritz Hulliger (Physical Properties)
(c) Springer & Material Phases Data System (MPDS), Switzerland & National 
Institute for Materials Science (NIMS), Japan 2014.
(Data generated pre-2002: (c) Springer & MPDS & NIMS; 
post-2001: (c) Springer & MPDS)
All Rights Reserved. Version 2014.06.
;

_audit_creation_method
;This data have been compiled from the crystallographic datasheet for 
"K2.5Bi2.5Ti4O13 (K2.5Ti4Bi2.5O13 rt) Crystal Structure" 
taken from SpringerMaterials (sm_isp_sd_1530645).
;

_publ_section_references
;Liu S., Avdeev M., Liu Y., Johnson M.R., Ling C.D.: <i>A new n= 4 layered Ruddlesden-Popper phase K<sub>2.5</sub>Bi<sub>2.5</sub>Ti<sub>4</sub>O<sub>13</sub> showing stoichiometric hydration</i>. Inorganic Chemistry <b>55</b> (2016) 1403-1411.
;

#Phase classification
_sm_phase_labels				'K2.5Ti4Bi2.5O13 rt'
_chemical_name_mineral			''
_sm_chemical_compound_class		'oxide'
_sm_phase_prototype				'Na(Na0.33 Ca0.67 )3 Nb4 O13 '
_sm_pearson_symbol				'oS88'
_symmetry_Int_Tables_number		36
_sm_sample_details
;sample prepared from KNO<sub>3</sub>, Bi<sub>2</sub>O<sub>3</sub>, TiO<sub>2</sub>, 
energy-dispersive X-ray analysis; K/Bi/Ti ratio 2.5/2.5/4, 
powder (determination of cell and structural parameters)
;
_sm_measurement_details
;automatic diffractometer (determination of cell parameters), 
automatic diffractometer; Australia, Lucas Heights, Australian Nuclear Science and Technology Organisation, OPAL reactor, ECHIDNA (determination of structural parameters), 
neutrons; &#x03bb; = 0.16215 nm (determination of cell and structural parameters)
;
_sm_interpretation_details
;complete structure determined; temperature dependence studied, 
Rietveld refinement; 64 variables; 625 reflections, 
<i>R</i><sub>P</sub> = 0.0484; <i>wR</i><sub>P</sub> = 0.0681; <i>R</i><sub>B</sub> = 0.04197
;

data_sm_isp_SD1530645-standardized_unitcell
#Cell Parameters
_cell_length_a					37.7395
_cell_length_b					5.5227
_cell_length_c					5.5382
_cell_angle_alpha				90
_cell_angle_beta				90
_cell_angle_gamma				90
_sm_length_ratio_ab				6.834
_sm_length_ratio_bc				0.997
_sm_length_ratio_ca				0.147
_cell_volume 					1154.29
_symmetry_space_group_name_H-M	'Cmc21'
_symmetry_Int_Tables_number		36
_cell_formula_units_Z			4
_sm_cell_transformation
;new axes c,a,b; -x,-y,-z; origin shift 0 0 0.716
;

#Atom Coordinates
loop_
_atom_site_label
_atom_site_type_symbol
_atom_site_Wyckoff_symbol
_sm_site_symmetry
_atom_site_fract_x
_atom_site_fract_y
_atom_site_fract_z
_atom_site_occupancy
_sm_coordination_number
_sm_atomic_environment_type
O5 'O' .8b .1 0.04684 0.5126 0.25 1 2 'non-collinear, Ti<sub>2</sub>'
Ti1 'Ti' .8b .1 0.0546 0.265 0.037 1 6 'octahedron, O<sub>6</sub>'
O2 'O' .8b .1 0.10191 0.2742 0.012 1 2 'non-collinear, Ti<sub>2</sub>'
O6 'O' .8b .1 0.1525 -0.021 0.288 1 3 'non-coplanar triangle , Ti<sub>2</sub>Bi'
Ti2 'Ti' .8b .1 0.16434 0.2987 0.04 1 6 'octahedron, O<sub>6</sub>'
O3 'O' .8b .1 0.21106 0.2556 0.014 1 1 'single atom, Ti'
K3 'K' .8b .1 0.2869 0.271 0.034 1 2 'non-collinear, O<sub>2</sub>'
O7 'O' .8b .1 0.3419 -0.023 0.264 1 2 'non-collinear, Ti<sub>2</sub>'
Bi,K2 '0.75Bi + 0.25K' .8b .1 0.38664 0.2462 0.061 1 7 'monocapped trigonal prism, O<sub>7</sub>'
O4 'O' .8b .1 0.4436 0.4848 0.239 1 2 'non-collinear, Ti<sub>2</sub>'
O1 'O' .4a .m.. 0 0.186 0 1 4 'tetrahedron, Ti<sub>2</sub>Bi<sub>2</sub>'
Bi1 'Bi' .4a .m.. 0 0.259 0.566 1 8 'square antiprism, O<sub>8</sub>'

_sm_atom_site_transformation
;new axes c,a,b; -x,-y,-z; origin shift 0 0 0.716
;

#Isotropic Displacement Parameters
loop_
_atom_site_label_1
_atom_site_U_iso_or_equiv
_sm_atom_site_isotropic_displacement_parameter_type
_atom_site_B_equiv_geom_mean
Ti1 0.000157(27) 'Uiso' ?
Ti2 0.000015(29) 'Uiso' ?
Bi1 0.00073(6) 'Uiso' ?
Bi,K2 0.00053(4) 'Uiso' ?
K3 0.00029(5) 'Uiso' ?
O1 0.00028(4) 'Uiso' ?
O2 0.000357(28) 'Uiso' ?
O3 0.000216(22) 'Uiso' ?
O4 0.00044(4) 'Uiso' ?
O5 0.00031(4) 'Uiso' ?
O6 0.000369(35) 'Uiso' ?
O7 0.000209(25) 'Uiso' ?

data_sm_isp_SD1530645-published_cell
#Cell Parameters
_cell_length_a					5.5227(8)
_cell_length_b					5.5382(7)
_cell_length_c					37.7395(33)
_cell_angle_alpha				90
_cell_angle_beta				90
_cell_angle_gamma				90
_sm_length_ratio_ab				0.997
_sm_length_ratio_bc				0.147
_sm_length_ratio_ca				6.834
_cell_volume 					1154.29
_symmetry_space_group_name_H-M	'Bb21m'
_symmetry_Int_Tables_number		36
_cell_formula_units_Z			4

#Atom Coordinates
loop_
_atom_site_label
_atom_site_type_symbol
_atom_site_Wyckoff_symbol
_sm_site_symmetry
_atom_site_fract_x
_atom_site_fract_y
_atom_site_fract_z
_atom_site_occupancy
_sm_coordination_number
_sm_atomic_environment_type
Ti1 'Ti' .8b .1 0.265(4) -0.253(7) 0.0546(4) 1 ? '?'
Ti2 'Ti' .8b .1 0.2987(22) 0.744(6) 0.16434(30) 1 ? '?'
Bi1 'Bi' .4a ...m 0.259(5) 0.218(8) 0 1 ? '?'
Bi,K2 '0.75Bi + 0.25K' .8b .1 0.2538(34) 0.223(8) 0.11336(24) 1 ? '?'
K3 'K' .8b .1 0.229(5) 0.25 0.2131(4) 1 ? '?'
O1 'O' .4a ...m 0.186(4) -0.216(7) 0 1 ? '?'
O2 'O' .8b .1 0.2742(28) -0.228(7) 0.10191(28) 1 ? '?'
O3 'O' .8b .1 0.2556(24) -0.23(6) 0.21106(22) 1 ? '?'
O4 'O' .8b .1 0.0152(35) 0.045(8) 0.0564(4) 1 ? '?'
O5 'O' .8b .1 0.5126(35) 0.534(8) 0.04684(30) 1 ? '?'
O6 'O' .8b .1 1.021(4) -0.004(7) 0.1525(4) 1 ? '?'
O7 'O' .8b .1 0.477(27) 0.52(6) 0.1581(4) 1 ? '?'

#Isotropic Displacement Parameters
loop_
_atom_site_label_1
_atom_site_U_iso_or_equiv
_sm_atom_site_isotropic_displacement_parameter_type
_atom_site_B_equiv_geom_mean
Ti1 0.000157(27) 'Uiso' ?
Ti2 0.000015(29) 'Uiso' ?
Bi1 0.00073(6) 'Uiso' ?
Bi,K2 0.00053(4) 'Uiso' ?
K3 0.00029(5) 'Uiso' ?
O1 0.00028(4) 'Uiso' ?
O2 0.000357(28) 'Uiso' ?
O3 0.000216(22) 'Uiso' ?
O4 0.00044(4) 'Uiso' ?
O5 0.00031(4) 'Uiso' ?
O6 0.000369(35) 'Uiso' ?
O7 0.000209(25) 'Uiso' ?

data_sm_isp_SD1530645-niggli_reduced_cell
#Cell Parameters
_cell_length_a					5.5227
_cell_length_b					5.5382
_cell_length_c					19.0707
_cell_angle_alpha				90
_cell_angle_beta				98.325
_cell_angle_gamma				90
_sm_length_ratio_ab				0.997
_sm_length_ratio_bc				0.290
_sm_length_ratio_ca				3.453
_cell_volume 					577.15
_symmetry_space_group_name_H-M	''
_symmetry_Int_Tables_number		?
_cell_formula_units_Z			4

#Atom Coordinates
loop_
_atom_site_label
_atom_site_type_symbol
_atom_site_Wyckoff_symbol
_sm_site_symmetry
_atom_site_fract_x
_atom_site_fract_y
_atom_site_fract_z
_atom_site_occupancy
_sm_coordination_number
_sm_atomic_environment_type
? ? ? ? ? ? ? ? ? ?

