##CIF_1.1

data_sm_global
#Used dictionaries
loop_
_audit_conform_dict_name
_audit_conform_dict_version
_audit_conform_dict_location
cif_core.dic 	2.4.2 	.
cif_pd.dic 		1.0.1 	.
cif_sm.dic 		0.1 	'redaktion.landolt-boernstein(at)springer.com'

#About this content and reference
_sm_credits_copyright
;PAULING FILE Multinaries Edition - 2012. SpringerMaterials Release 2014.
http://www.paulingfile.com
Unique LPF ID Number SD1502563
Project Coordinator: Shuichi Iwata
Section-Editors: Karin Cenzual (Crystal Structures), Hiroaki Okamoto (Phase 
Diagrams), Fritz Hulliger (Physical Properties)
(c) Springer & Material Phases Data System (MPDS), Switzerland & National 
Institute for Materials Science (NIMS), Japan 2014.
(Data generated pre-2002: (c) Springer & MPDS & NIMS; 
post-2001: (c) Springer & MPDS)
All Rights Reserved. Version 2014.06.
;

_audit_creation_method
;This data have been compiled from the crystallographic datasheet for 
"K0.5La0.5Ca1.5Nb3O10 (K0.5Ca1.5La0.5Nb3O10) Crystal Structure" 
taken from SpringerMaterials (sm_isp_sd_1502563).
;

_publ_section_references
;Uma S., Gopalakrishnan J.: <b>102</b> (1993) 332-339.
;

#Phase classification
_sm_phase_labels				'K0.5Ca1.5La0.5Nb3O10'
_chemical_name_mineral			''
_sm_chemical_compound_class		'oxide'
_sm_phase_prototype				'*'
_sm_pearson_symbol				'oP32'
_symmetry_Int_Tables_number		*
_sm_sample_details
;sample prepared from K<sub>2</sub>CO<sub>3</sub>, La<sub>2</sub>O<sub>3</sub>, CaCO<sub>3</sub>, Nb<sub>2</sub>O<sub>5</sub>, 
energy-dispersive X-ray analysis; composition confirmed, 
powder (determination of cell parameters)
;
_sm_measurement_details
;automatic diffractometer (determination of cell parameters), 
X-rays, Cu K&#x03b1; (determination of cell parameters)
;
_sm_interpretation_details
;cell parameters determined; composition dependence studied
;

data_sm_isp_SD1502563-standardized_unitcell
#Cell Parameters
_cell_length_a					3.901
_cell_length_b					3.901
_cell_length_c					29.65
_cell_angle_alpha				90
_cell_angle_beta				90
_cell_angle_gamma				90
_sm_length_ratio_ab				1.000
_sm_length_ratio_bc				0.132
_sm_length_ratio_ca				7.601
_cell_volume 					451.2
_symmetry_space_group_name_H-M	''
_symmetry_Int_Tables_number		?
_cell_formula_units_Z			2
_sm_cell_transformation
;new axes b,a,-c
;

#Atom Coordinates
loop_
_atom_site_label
_atom_site_type_symbol
_atom_site_Wyckoff_symbol
_sm_site_symmetry
_atom_site_fract_x
_atom_site_fract_y
_atom_site_fract_z
_atom_site_occupancy
_sm_coordination_number
_sm_atomic_environment_type
? ? ? ? ? ? ? ? ? ?

data_sm_isp_SD1502563-published_cell
#Cell Parameters
_cell_length_a					3.901(5)
_cell_length_b					3.901(4)
_cell_length_c					29.65(1)
_cell_angle_alpha				90
_cell_angle_beta				90
_cell_angle_gamma				90
_sm_length_ratio_ab				1.000
_sm_length_ratio_bc				0.132
_sm_length_ratio_ca				7.601
_cell_volume 					451.21
_symmetry_space_group_name_H-M	''
_symmetry_Int_Tables_number		?
_cell_formula_units_Z			2

#Atom Coordinates
loop_
_atom_site_label
_atom_site_type_symbol
_atom_site_Wyckoff_symbol
_sm_site_symmetry
_atom_site_fract_x
_atom_site_fract_y
_atom_site_fract_z
_atom_site_occupancy
_sm_coordination_number
_sm_atomic_environment_type
? ? ? ? ? ? ? ? ? ?

data_sm_isp_SD1502563-niggli_reduced_cell
#Cell Parameters
_cell_length_a					3.901
_cell_length_b					3.901
_cell_length_c					29.65
_cell_angle_alpha				90
_cell_angle_beta				90
_cell_angle_gamma				90
_sm_length_ratio_ab				1.000
_sm_length_ratio_bc				0.132
_sm_length_ratio_ca				7.601
_cell_volume 					451.21
_symmetry_space_group_name_H-M	''
_symmetry_Int_Tables_number		?
_cell_formula_units_Z			2

#Atom Coordinates
loop_
_atom_site_label
_atom_site_type_symbol
_atom_site_Wyckoff_symbol
_sm_site_symmetry
_atom_site_fract_x
_atom_site_fract_y
_atom_site_fract_z
_atom_site_occupancy
_sm_coordination_number
_sm_atomic_environment_type
? ? ? ? ? ? ? ? ? ?

data_sm_isp_SD1502563-powder_pattern
#Powder Pattern
#Note: Powder patterns are provided using custom cif-fields!
loop_
_sm_powderpattern_unit_published_line
_sm_powderpattern_value_published_line
_sm_powderpattern_unit_computed_line
_sm_powderpattern_value_computed_line
_sm_powderpattern_intensity
_sm_powderpattern_miller_indices_h
_sm_powderpattern_miller_indices_k
_sm_powderpattern_miller_indices_l
_sm_powderpattern_radiation
_sm_powderpattern_remark
'd' 14.91 'd' 1.4910 40 0 0 2 'Cu K&#x03b1;' ''
'd' 7.42 'd' 0.7420 20 0 0 4 'Cu K&#x03b1;' ''
'd' 4.95 'd' 0.4950 15 0 0 6 'Cu K&#x03b1;' ''
'd' 3.907 'd' 0.3907 40 1 0 0 'Cu K&#x03b1;' ''
'd' 3.780 'd' 0.3780 20 1 0 2 'Cu K&#x03b1;' ''
'd' 3.710 'd' 0.3710 26 0 0 8 'Cu K&#x03b1;' ''
'd' 3.635 'd' 0.3635 16 0 1 3 'Cu K&#x03b1;' ''
'd' 3.461 'd' 0.3461 22 1 0 4 'Cu K&#x03b1;' ''
'd' 3.268 'd' 0.3268 20 0 1 5 'Cu K&#x03b1;' ''
'd' 3.072 'd' 0.3072 100 1 0 6 'Cu K&#x03b1;' ''
'd' 2.974 'd' 0.2974 10 0 0 10 'Cu K&#x03b1;' ''
'd' 2.880 'd' 0.2880 68 0 1 7 'Cu K&#x03b1;' ''
'd' 2.758 'd' 0.2758 74 1 1 0 'Cu K&#x03b1;' ''
'd' 2.694 'd' 0.2694 20 1 0 8 'Cu K&#x03b1;' ''
'd' 2.660 'd' 0.2660 10 1 1 3 'Cu K&#x03b1;' ''
'd' 2.122 'd' 0.2122 36 0 0 14 'Cu K&#x03b1;' ''
'd' 1.978 'd' 0.1978 8 0 1 13 'Cu K&#x03b1;' ''
'd' 1.953 'd' 0.1953 28 2 0 0 'Cu K&#x03b1;' ''
'd' 1.945 'd' 0.1945 40 0 2 0 'Cu K&#x03b1;' ''
'd' 1.894 'd' 0.1894 10 0 2 4 'Cu K&#x03b1;' ''
'd' 1.860 'd' 0.1860 14 1 0 14 'Cu K&#x03b1;' ''
'd' 1.812 'd' 0.1812 12 0 2 6 'Cu K&#x03b1;' ''
'd' 1.780 'd' 0.1780 10 2 0 7 'Cu K&#x03b1;' ''
'd' 1.758 'd' 0.1758 14 1 0 15 'Cu K&#x03b1;' 'additional indices 1 1 13'
'd' 1.645 'd' 0.1645 22 0 0 18 'Cu K&#x03b1;' 'additional indices 1 2 6'
'd' 1.609 'd' 0.1609 12 1 2 7 'Cu K&#x03b1;' ''
'd' 1.585 'd' 0.1585 10 1 2 8 'Cu K&#x03b1;' ''
'd' 1.536 'd' 0.1536 14 0 2 12 'Cu K&#x03b1;' ''
'd' 1.483 'd' 0.1483 6 0 0 20 'Cu K&#x03b1;' ''
'd' 1.432 'd' 0.1432 16 0 2 14 'Cu K&#x03b1;' ''
'd' 1.385 'd' 0.1385 6 1 0 20 'Cu K&#x03b1;' ''
'd' 1.376 'd' 0.1376 13 2 2 0 'Cu K&#x03b1;' ''

