##CIF_1.1

data_sm_global
#Used dictionaries
loop_
_audit_conform_dict_name
_audit_conform_dict_version
_audit_conform_dict_location
cif_core.dic 	2.4.2 	.
cif_pd.dic 		1.0.1 	.
cif_sm.dic 		0.1 	'redaktion.landolt-boernstein(at)springer.com'

#About this content and reference
_sm_credits_copyright
;PAULING FILE Multinaries Edition - 2012. SpringerMaterials Release 2014.
http://www.paulingfile.com
Unique LPF ID Number SD1538044
Project Coordinator: Shuichi Iwata
Section-Editors: Karin Cenzual (Crystal Structures), Hiroaki Okamoto (Phase 
Diagrams), Fritz Hulliger (Physical Properties)
(c) Springer & Material Phases Data System (MPDS), Switzerland & National 
Institute for Materials Science (NIMS), Japan 2014.
(Data generated pre-2002: (c) Springer & MPDS & NIMS; 
post-2001: (c) Springer & MPDS)
All Rights Reserved. Version 2014.06.
;

_audit_creation_method
;This data have been compiled from the crystallographic datasheet for 
"KNdTa2O7 Crystal Structure" 
taken from SpringerMaterials (sm_isp_sd_1538044).
;

_publ_section_references
;Mallick S., Gibbs A.S., Zhang W., Halasyamani P.S., Benedek N.A., Hayward M.A.: <i>Polar structures of KNdNb<sub>2</sub>O<sub>7</sub> and KNdTa<sub>2</sub>O<sub>7</sub></i>. Chemistry of Materials <b>32</b> (2020) 7965-7972.
;

#Phase classification
_sm_phase_labels				'KNdTa2O7'
_chemical_name_mineral			''
_sm_chemical_compound_class		'oxide'
_sm_phase_prototype				'KNdNb2 O7 '
_sm_pearson_symbol				'oI44'
_symmetry_Int_Tables_number		44
_sm_sample_details
;sample prepared from NaNdTa<sub>2</sub>O<sub>7</sub>, KNO<sub>3</sub>, 
powder (determination of structural parameters)
;
_sm_measurement_details
;automatic diffractometer; United Kingdom, Chilton-Didcot, Rutherford Appleton Laboratory, ISIS Facility, HRPD (determination of structural parameters), 
neutrons, time-of-flight (determination of structural parameters), 
<i>T</i> = 298 K (determination of structural parameters)
;
_sm_interpretation_details
;complete structure determined, 
Rietveld refinement; 77 variables, 
<i>R</i><sub>P</sub> = 0.0550; <i>wR</i><sub>P</sub> = 0.0594
;

data_sm_isp_SD1538044-standardized_unitcell
#Cell Parameters
_cell_length_a					7.7018
_cell_length_b					21.7688
_cell_length_c					3.8613
_cell_angle_alpha				90
_cell_angle_beta				90
_cell_angle_gamma				90
_sm_length_ratio_ab				0.354
_sm_length_ratio_bc				5.638
_sm_length_ratio_ca				0.501
_cell_volume 					647.38
_symmetry_space_group_name_H-M	'Imm2'
_symmetry_Int_Tables_number		44
_cell_formula_units_Z			4
_sm_cell_transformation
;new axes a,c,-b; -x,-y,-z; origin shift 0 1/2 0.5405
;

#Atom Coordinates
loop_
_atom_site_label
_atom_site_type_symbol
_atom_site_Wyckoff_symbol
_sm_site_symmetry
_atom_site_fract_x
_atom_site_fract_y
_atom_site_fract_z
_atom_site_occupancy
_sm_coordination_number
_sm_atomic_environment_type
O4 'O' .8e .1 0.2169 0.3174 -0.0209 1 1 'single atom, Ta'
Ta1 'Ta' .8e .1 0.2516 0.3992 -0.0211 1 6 'octahedron, O<sub>6</sub>'
O5 'O' .8e .1 0.2457 0.0831 -0.0111 1 2 'non-collinear, Ta<sub>2</sub>'
O2 'O' .4d .m.. 0 0.0924 0.5666 1 2 'non-collinear, Ta<sub>2</sub>'
K1 'K' .4d .m.. 0 0.2646 0.4669 1 6 'trigonal prism, O<sub>6</sub>'
O3 'O' .4d .m.. 0 0.4224 0.0165 1 2 'non-collinear, Ta<sub>2</sub>'
O1 'O' .4c ..m. 0.2188 0 0.5464 1 2 'non-collinear, Ta<sub>2</sub>'
Nd1 'Nd' .2b .mm2 0 0.5 0.4777 1 12 'cuboctahedron, O<sub>12</sub>'
Nd2 'Nd' .2a .mm2 0 0 0 1 12 'cuboctahedron, O<sub>12</sub>'

_sm_atom_site_transformation
;new axes a,c,-b; -x,-y,-z; origin shift 0 1/2 0.5405
;

#Isotropic Displacement Parameters
loop_
_atom_site_label_1
_atom_site_U_iso_or_equiv
_sm_atom_site_isotropic_displacement_parameter_type
_atom_site_B_equiv_geom_mean
K1 0.000036(19) 'Uiso' ?
Nd1 0.000176(22) 'Uiso' ?
Nd2 0.00011(19) 'Uiso' ?
Ta1 0.000041(5) 'Uiso' ?
O1 0.000104(17) 'Uiso' ?
O2 0.000007(15) 'Uiso' ?
O3 0.000094(15) 'Uiso' ?
O4 0.000251(11) 'Uiso' ?
O5 0.000508(12) 'Uiso' ?

data_sm_isp_SD1538044-published_cell
#Cell Parameters
_cell_length_a					7.7018(6)
_cell_length_b					3.8613(3)
_cell_length_c					21.7688(17)
_cell_angle_alpha				90
_cell_angle_beta				90
_cell_angle_gamma				90
_sm_length_ratio_ab				1.995
_sm_length_ratio_bc				0.177
_sm_length_ratio_ca				2.826
_cell_volume 					647.38
_symmetry_space_group_name_H-M	'Im2m'
_symmetry_Int_Tables_number		44
_cell_formula_units_Z			4

#Atom Coordinates
loop_
_atom_site_label
_atom_site_type_symbol
_atom_site_Wyckoff_symbol
_sm_site_symmetry
_atom_site_fract_x
_atom_site_fract_y
_atom_site_fract_z
_atom_site_occupancy
_sm_coordination_number
_sm_atomic_environment_type
K1 'K' .4c .m.. 0 0.0074(37) 0.2354(4) 1 ? '?'
Nd1 'Nd' .2a .m2m 0 0.0182(36) 0 1 ? '?'
Nd2 'Nd' .2b .m2m 0.5 0.0405(27) 0 1 ? '?'
Ta1 'Ta' .8e .1 0.7516(5) 0.0194(11) 0.3992(1) 1 ? '?'
O1 'O' .4d ...m 0.2812(6) 0.5869(14) 0 1 ? '?'
O2 'O' .4c .m.. 0 0.1071(16) 0.4076(2) 1 ? '?'
O3 'O' .4c .m.. 0 0.557(23) 0.9224(2) 1 ? '?'
O4 'O' .8e .1 0.7169(5) 0.0196(21) 0.3174(1) 1 ? '?'
O5 'O' .8e .1 0.7457(11) 0.0294(24) 0.0831(1) 1 ? '?'

#Isotropic Displacement Parameters
loop_
_atom_site_label_1
_atom_site_U_iso_or_equiv
_sm_atom_site_isotropic_displacement_parameter_type
_atom_site_B_equiv_geom_mean
K1 0.000036(19) 'Uiso' ?
Nd1 0.000176(22) 'Uiso' ?
Nd2 0.00011(19) 'Uiso' ?
Ta1 0.000041(5) 'Uiso' ?
O1 0.000104(17) 'Uiso' ?
O2 0.000007(15) 'Uiso' ?
O3 0.000094(15) 'Uiso' ?
O4 0.000251(11) 'Uiso' ?
O5 0.000508(12) 'Uiso' ?

data_sm_isp_SD1538044-niggli_reduced_cell
#Cell Parameters
_cell_length_a					3.8613
_cell_length_b					7.7018
_cell_length_c					11.7059
_cell_angle_alpha				109.206
_cell_angle_beta				99.493
_cell_angle_gamma				90
_sm_length_ratio_ab				0.501
_sm_length_ratio_bc				0.658
_sm_length_ratio_ca				3.032
_cell_volume 					323.69
_symmetry_space_group_name_H-M	''
_symmetry_Int_Tables_number		?
_cell_formula_units_Z			4

#Atom Coordinates
loop_
_atom_site_label
_atom_site_type_symbol
_atom_site_Wyckoff_symbol
_sm_site_symmetry
_atom_site_fract_x
_atom_site_fract_y
_atom_site_fract_z
_atom_site_occupancy
_sm_coordination_number
_sm_atomic_environment_type
? ? ? ? ? ? ? ? ? ?

