##CIF_1.1

data_sm_global
#Used dictionaries
loop_
_audit_conform_dict_name
_audit_conform_dict_version
_audit_conform_dict_location
cif_core.dic 	2.4.2 	.
cif_pd.dic 		1.0.1 	.
cif_sm.dic 		0.1 	'redaktion.landolt-boernstein(at)springer.com'

#About this content and reference
_sm_credits_copyright
;PAULING FILE Multinaries Edition - 2012. SpringerMaterials Release 2014.
http://www.paulingfile.com
Unique LPF ID Number SD1530646
Project Coordinator: Shuichi Iwata
Section-Editors: Karin Cenzual (Crystal Structures), Hiroaki Okamoto (Phase 
Diagrams), Fritz Hulliger (Physical Properties)
(c) Springer & Material Phases Data System (MPDS), Switzerland & National 
Institute for Materials Science (NIMS), Japan 2014.
(Data generated pre-2002: (c) Springer & MPDS & NIMS; 
post-2001: (c) Springer & MPDS)
All Rights Reserved. Version 2014.06.
;

_audit_creation_method
;This data have been compiled from the crystallographic datasheet for 
"K2.5Bi2.5Ti4O13&#x00b7;(H2O) (K2.5Ti4Bi2.5O13[H2O], <i>T</i> = 300 K) Crystal Structure" 
taken from SpringerMaterials (sm_isp_sd_1530646).
;

_publ_section_references
;Liu S., Avdeev M., Liu Y., Johnson M.R., Ling C.D.: <i>A new n= 4 layered Ruddlesden-Popper phase K<sub>2.5</sub>Bi<sub>2.5</sub>Ti<sub>4</sub>O<sub>13</sub> showing stoichiometric hydration</i>. Inorganic Chemistry <b>55</b> (2016) 1403-1411.
;

#Phase classification
_sm_phase_labels				'K2.5Ti4Bi2.5O13[H2O]'
_chemical_name_mineral			''
_sm_chemical_compound_class		'oxide, hydrate'
_sm_phase_prototype				'K2 (K0.25 Bi0.75 )2 Ti4 BiO13 [H2 O]'
_sm_pearson_symbol				'oP46'
_symmetry_Int_Tables_number		26
_sm_sample_details
;sample prepared from KNO<sub>3</sub>, Bi<sub>2</sub>O<sub>3</sub>, TiO<sub>2</sub>, 
powder (determination of cell and structural parameters)
;
_sm_measurement_details
;automatic diffractometer (determination of cell parameters), 
automatic diffractometer; Australia, Lucas Heights, Australian Nuclear Science and Technology Organisation, OPAL reactor, ECHIDNA (determination of structural parameters), 
neutrons; &#x03bb; = 0.16215 nm (determination of cell and structural parameters), 
<i>T</i> = 300 K (determination of cell and structural parameters)
;
_sm_interpretation_details
;complete structure determined; temperature dependence studied, 
Rietveld refinement; 65 variables; 664 reflections, 
<i>R</i><sub>P</sub> = 0.0183; <i>wR</i><sub>P</sub> = 0.0234; <i>R</i><sub>B</sub> = 0.02553
;

data_sm_isp_SD1530646-standardized_unitcell
#Cell Parameters
_cell_length_a					20.758
_cell_length_b					5.5066
_cell_length_c					5.5261
_cell_angle_alpha				90
_cell_angle_beta				90
_cell_angle_gamma				90
_sm_length_ratio_ab				3.770
_sm_length_ratio_bc				0.996
_sm_length_ratio_ca				0.266
_cell_volume 					631.7
_symmetry_space_group_name_H-M	'Pmc21'
_symmetry_Int_Tables_number		26
_cell_formula_units_Z			2
_sm_cell_transformation
;new axes c,a,b; origin shift 0 0 0.70900
;

#Atom Coordinates
loop_
_atom_site_label
_atom_site_type_symbol
_atom_site_Wyckoff_symbol
_sm_site_symmetry
_atom_site_fract_x
_atom_site_fract_y
_atom_site_fract_z
_atom_site_occupancy
_sm_coordination_number
_sm_atomic_environment_type
O5 'O' .4c .1 0.0938 0.506 0.291 1 1 'single atom, Ti'
O4 'O' .4c .1 0.0961 0.002 0.287 1 1 'single atom, Ti'
Ti1 'Ti' .4c .1 0.1022 0.293 0.132 1 6 'octahedron, O<sub>6</sub>'
O2 'O' .4c .1 0.1898 0.27 0.056 1 1 'single atom, Ti'
Bi,K2 '0.75Bi + 0.25K' .4c .1 0.2021 0.238 0.504 1 2 'non-collinear, O<sub>2</sub>'
O6 'O' .4c .1 0.2749 0.023 0.306 1 4 'tetrahedron, central atom outside, Ti<sub>2</sub>OBi'
O7 'O' .4c .1 0.2893 0.414 0.335 1 4 'tetrahedron, Ti<sub>2</sub>OBi'
Ti2 'Ti' .4c .1 0.3026 0.26 0.008 1 6 'octahedron, O<sub>6</sub>'
K3 'K' .4c .1 0.3854 0.265 0.544 1 3 'non-coplanar triangle , O<sub>3</sub>'
O3 'O' .4c .1 0.4 0.218 0.065 1 2 'non-collinear, TiO'
Ow 'O' .2b .m.. 0.5 0.3266 0.11148 1 2 'non-collinear, O<sub>2</sub>'
O1 'O' .2a .m.. 0 0.351 0.092 1 3 'non-coplanar triangle , BiTi<sub>2</sub>'
Bi1 'Bi' .2a .m.. 0 0.718 0 1 2 'non-collinear, O<sub>2</sub>'
Hw 'H' .4c .1 0.47763 0.24097 0.04233 1 ? '?'

_sm_atom_site_transformation
;new axes c,a,b; origin shift 0 0 0.70900
;

#Isotropic Displacement Parameters
loop_
_atom_site_label_1
_atom_site_U_iso_or_equiv
_sm_atom_site_isotropic_displacement_parameter_type
_atom_site_B_equiv_geom_mean
Ti1 0.00026(7) 'Uiso' ?
Ti2 0.00017(4) 'Uiso' ?
Bi1 0.00048(5) 'Uiso' ?
Bi,K2 0.00051(4) 'Uiso' ?
K3 0.00018(4) 'Uiso' ?
O1 0.00123(26) 'Uiso' ?
O2 0.000243(34) 'Uiso' ?
O3 0.0006(7) 'Uiso' ?
O4 0.00112(13) 'Uiso' ?
O5 0.00049(5) 'Uiso' ?
O6 0.000273(29) 'Uiso' ?
O7 0.00218(32) 'Uiso' ?
Ow 0.00122(14) 'Uiso' ?
Hw 0.00122(14) 'Uiso' ?

data_sm_isp_SD1530646-published_cell
#Cell Parameters
_cell_length_a					5.5066(17)
_cell_length_b					5.5261(17)
_cell_length_c					20.758(5)
_cell_angle_alpha				90
_cell_angle_beta				90
_cell_angle_gamma				90
_sm_length_ratio_ab				0.996
_sm_length_ratio_bc				0.266
_sm_length_ratio_ca				3.770
_cell_volume 					631.67
_symmetry_space_group_name_H-M	'Pb21m'
_symmetry_Int_Tables_number		26
_cell_formula_units_Z			2

#Atom Coordinates
loop_
_atom_site_label
_atom_site_type_symbol
_atom_site_Wyckoff_symbol
_sm_site_symmetry
_atom_site_fract_x
_atom_site_fract_y
_atom_site_fract_z
_atom_site_occupancy
_sm_coordination_number
_sm_atomic_environment_type
Ti1 'Ti' .4c .1 0.293(5) 0.841(11) 0.1022(14) 1 ? '?'
Ti2 'Ti' .4c .1 0.26(6) 0.717(12) 0.3026(8) 1 ? '?'
Bi1 'Bi' .2a ...m 0.282(6) 0.209(13) 0 1 ? '?'
Bi,K2 '0.75Bi + 0.25K' .4c .1 0.238(5) 0.213(12) 0.2021(7) 1 ? '?'
K3 'K' .4c .1 0.265(6) 0.253(12) 0.3854(10) 1 ? '?'
O1 'O' .2a ...m 0.351(11) 0.801(18) 0 1 ? '?'
O2 'O' .4c .1 0.27(4) 0.765(12) 0.1898(6) 1 ? '?'
O3 'O' .4c .1 0.218(6) 0.774(12) 0.4(10) 1 ? '?'
O4 'O' .4c .1 0.002(10) -0.004(19) 0.0961(21) 1 ? '?'
O5 'O' .4c .1 0.494(5) 0.5(13) 0.0938(11) 1 ? '?'
O6 'O' .4c .1 1.023(4) 0.015(12) 0.2749(6) 1 ? '?'
O7 'O' .4c .1 0.586(12) 0.544(27) 0.2893(30) 1 ? '?'
Ow 'O' .2b ...m 0.6734 0.32048 0.5 1 ? '?'
Hw 'H' .4c .1 0.75903 0.25133 0.47763 1 ? '?'

#Isotropic Displacement Parameters
loop_
_atom_site_label_1
_atom_site_U_iso_or_equiv
_sm_atom_site_isotropic_displacement_parameter_type
_atom_site_B_equiv_geom_mean
Ti1 0.00026(7) 'Uiso' ?
Ti2 0.00017(4) 'Uiso' ?
Bi1 0.00048(5) 'Uiso' ?
Bi,K2 0.00051(4) 'Uiso' ?
K3 0.00018(4) 'Uiso' ?
O1 0.00123(26) 'Uiso' ?
O2 0.000243(34) 'Uiso' ?
O3 0.0006(7) 'Uiso' ?
O4 0.00112(13) 'Uiso' ?
O5 0.00049(5) 'Uiso' ?
O6 0.000273(29) 'Uiso' ?
O7 0.00218(32) 'Uiso' ?
Ow 0.00122(14) 'Uiso' ?
Hw 0.00122(14) 'Uiso' ?

data_sm_isp_SD1530646-niggli_reduced_cell
#Cell Parameters
_cell_length_a					5.5066
_cell_length_b					5.5261
_cell_length_c					20.758
_cell_angle_alpha				90
_cell_angle_beta				90
_cell_angle_gamma				90
_sm_length_ratio_ab				0.996
_sm_length_ratio_bc				0.266
_sm_length_ratio_ca				3.770
_cell_volume 					631.67
_symmetry_space_group_name_H-M	''
_symmetry_Int_Tables_number		?
_cell_formula_units_Z			2

#Atom Coordinates
loop_
_atom_site_label
_atom_site_type_symbol
_atom_site_Wyckoff_symbol
_sm_site_symmetry
_atom_site_fract_x
_atom_site_fract_y
_atom_site_fract_z
_atom_site_occupancy
_sm_coordination_number
_sm_atomic_environment_type
? ? ? ? ? ? ? ? ? ?

